  22
        -36.24494569
 Eu         0.0046135283        0.0000019397        0.0009018604
 O         -0.7091301781       -2.1926549416        0.6522655995
 H         -0.1535268869       -2.9824097960        0.7314104880
 H         -1.6126014988       -2.5040861288        0.8117534927
 O          1.9409180491       -1.4560619164       -0.1827958483
 H          2.6132125060       -1.6189420204        0.4952852918
 H          2.2920839687       -1.8610047732       -0.9898651025
 O         -0.1351016460        0.5087983503        2.3092454014
 H          0.0150560893       -0.0922690962        3.0554620867
 H         -0.4176088948        1.3440476223        2.7129882785
 O         -0.6004293364        2.2183222629       -0.6744062753
 H         -0.0084392969        2.9826022184       -0.7393680822
 H         -1.4852723177        2.5699723619       -0.8532200401
 O         -2.4106895860        0.0546905730       -0.0105828403
 H         -2.9985407313        0.2612603992        0.7311674308
 H         -2.9997083631       -0.1227271263       -0.7588457491
 O         -0.1224603279       -0.5059944695       -2.3086940938
 H         -0.4489089440       -1.3237222813       -2.7151687992
 H          0.0751867130        0.0828295267       -3.0536044410
 O          1.9983553636        1.3728575371        0.2078343153
 H          2.3626293325        1.7651006468        1.0153395082
 H          2.6825624998        1.4997322752       -0.4660748530
  22
        -36.24490733
 Eu         0.0019887047       -0.0070027676        0.0013348105
 O          1.7080706294       -1.4142412068        0.9816638746
 H          1.9177647051       -1.5651424065        1.9151325237
 H          2.3391796071       -1.9628177144        0.4920285899
 O         -0.6508239399       -2.2909714424       -0.4597686028
 H         -0.9322831632       -2.9449732718        0.1975590738
 H         -0.6853147982       -2.7582437492       -1.3074403401
 O         -0.4373601420        0.3614891289        2.3099909688
 H         -0.3650771354        1.2170139351        2.7613184362
 H         -0.7489165479       -0.2532245816        2.9914223372
 O          2.0661066296        1.2395055439       -0.1381085256
 H          2.5742615626        1.4228209808       -0.9425070717
 H          2.6475984769        1.5034358354        0.5901552390
 O         -2.4131423511       -0.0243830142       -0.0316201606
 H         -2.9999359914        0.0661084266        0.7341184169
 H         -2.9917366248       -0.2976440415       -0.7587489233
 O          0.3561826905       -0.0699633168       -2.3501775298
 H          0.9909921709       -0.5835390208       -2.8722143139
 H         -0.1157001473        0.4752930362       -2.9989742106
 O         -0.6486709310        2.2666952669       -0.3243766789
 H         -0.0703694241        3.0412186551       -0.3910030604
 H         -1.5485930638        2.6140526031       -0.4153234533
  22
        -36.24467174
 Eu         0.0029283528       -0.0023450380        0.0044432982
 O         -1.6844788501       -1.5967934815        0.5002804002
 H         -1.6620817548       -2.2923932443        1.1754078089
 H         -2.5596952333       -1.6748661758        0.0899459885
 O          2.0991841044       -0.9358500165        0.7881761024
 H          2.2150973902       -1.7998801533        1.2108167641
 H          2.9968011333       -0.5936456292        0.6630889874
 O          0.0033506661        0.2303751068        2.4000656315
 H         -0.7583354660        0.2698160911        2.9973300450
 H          0.7727461301        0.3878823236        2.9672468638
 O          1.5088968033        1.7263033759       -0.6138141926
 H          1.7354587376        1.9652735921       -1.5262825722
 H          1.9577474126        2.3875666865       -0.0655521288
 O          0.6239989003       -1.7523255174       -1.5484644055
 H          0.2160032647       -2.6267859427       -1.6354173491
 H          1.4290687600       -1.7964228534       -2.0853795239
 O         -1.5070001715        1.8141911780        0.4998681703
 H         -2.4541784400        1.7774516605        0.6982268306
 H         -1.2551054906        2.7372572053        0.6528424686
 O         -1.0682080844        0.5332086198       -2.0679918136
 H         -1.6666262067        1.2733037974       -2.2491960315
 H         -1.0233842314        0.0356843847       -2.8982289049
  22
        -36.24419579
 Eu         0.0006649450       -0.0048693367       -0.0046766397
 O          0.6242169873       -0.8197812124        2.1558750267
 H          1.4392076824       -0.7689007768        2.6755987327
 H          0.0008354138       -1.3038466398        2.7191928356
 O          1.4086421404       -1.7697184079       -0.7430827655
 H          1.4400487942       -2.6734948377       -0.3928548702
 H          2.1961760468       -1.6921850277       -1.3036291631
 O         -1.9329935822       -1.1609896501        0.8952502336
 H         -2.6811978331       -0.7779238666        1.3769259919
 H         -2.2055433350       -2.0667116580        0.6854366845
 O         -1.2843600975       -0.8048410561       -1.8982900605
 H         -1.0718701531       -1.5304860976       -2.5040469488
 H         -2.1324306230       -0.4544981550       -2.2102170531
 O         -1.1130803385        1.8164948122        1.0330774823
 H         -1.9470007336        2.2639250227        0.8246578413
 H         -0.7676086885        2.2805933677        1.8119648116
 O          0.2208757376        1.6576208867       -1.7588616056
 H         -0.1366892892        2.5579116322       -1.7718262654
 H          0.5224099593        1.4933901419       -2.6647873535
 O          2.0821197045        1.1153007230        0.3571919070
 H          2.3791104806        1.8366509648       -0.2187560819
 H          2.7782468214        1.0286863869        1.0241020801
  22
        -36.24408866
 Eu        -0.0020929849        0.0024535642        0.0008042944
 O         -1.4370214132        1.0256339553       -1.6547846662
 H         -2.4048397653        1.0617130039       -1.6561979199
 H         -1.1685902270        1.4871282510       -2.4632246761
 O          2.0052994350       -1.3350751432        0.0601669581
 H          2.0570185422       -2.3010896348        0.0089127423
 H          2.9106519795       -1.0453116806        0.2459961968
 O         -1.1642785326        1.7910491421        1.0964146788
 H         -1.6340495969        1.7589294735        1.9429577236
 H         -1.2687388535        2.7029428460        0.7867873563
 O          0.7572538345        0.0349707521        2.2975364179
 H          1.2383753047        0.7423251257        2.7516145410
 H          0.6430253416       -0.6579823352        2.9649023730
 O         -1.5794623319       -1.5359676697        0.8849185605
 H         -1.4276269609       -2.4752955182        1.0712057546
 H         -2.5074038229       -1.3858698094        1.1221856367
 O         -0.1259762170       -1.5669058531       -1.8285738588
 H          0.5516996618       -1.7234313865       -2.5028767065
 H         -0.8900972968       -2.0881724529       -2.1159735099
 O          1.5625637182        1.5653040952       -0.8627608608
 H          1.8276628937        2.4242641033       -0.4996350812
 H          2.0967505458        1.4631110393       -1.6654931419
  22
        -36.24374091
 Eu        -0.0023141475        0.0025233246       -0.0003014911
 O         -1.0309325177       -1.7401384080       -1.3518007359
 H         -1.9707684966       -1.9448270984       -1.4624969464
 H         -0.5633984165       -2.3915814219       -1.8958123706
 O          0.9000729197       -2.0893026805        0.7472748942
 H          1.7900104626       -2.4650201591        0.6747615397
 H          0.3360011548       -2.8315075200        1.0143378586
 O         -0.3119154538        2.3296096660       -0.4329174746
 H         -0.6531167506        3.0212940592        0.1535858264
 H         -0.1696061264        2.7710766181       -1.2841333120
 O         -2.3923793286        0.2961613011        0.2121267374
 H         -2.9813866839        0.8109843908       -0.3595242196
 H         -2.9332358193        0.0491115952        0.9775974905
 O         -0.3113367077        0.1792863173        2.3619321693
 H         -0.2246728213       -0.5505204129        2.9940651470
 H         -0.3483991481        0.9776509824        2.9097658511
 O          1.0159849986        0.1699625353       -2.1582024829
 H          1.9591231251        0.1115682900       -2.3743311602
 H          0.5609408735        0.2014877811       -3.0132133961
 O          2.1470822966        0.8344329669        0.6253005990
 H          2.8673552988        0.4160604967        1.1197414977
 H          2.4169472033        1.7610526407        0.5321633192
  22
        -36.24372527
 Eu        -0.0001769071        0.0081524112       -0.0054024578
 O          1.4108283370       -1.8598675974       -0.4660464342
 H          1.2553507582       -2.4423590830       -1.2260256521
 H          2.2004739841       -2.2183243012       -0.0352314518
 O         -0.5077581560       -1.4148359820        1.8611468082
 H         -0.5588176615       -2.3826655114        1.8602421878
 H         -0.5227482048       -1.1619420045        2.7969006321
 O          1.4812914309        1.1576630807       -1.4689822384
 H          1.5484031285        2.0830897704       -1.7463217470
 H          2.2884201270        0.7396305442       -1.8076967281
 O         -0.8056587982        2.1904933815        0.5897101686
 H         -1.3668015292        2.3259328507        1.3692873540
 H         -0.8442108435        3.0285996160        0.1059069427
 O         -2.4355866195       -0.1373768271        0.0884522191
 H         -2.9609934409       -0.6877241698        0.6880944485
 H         -3.0826646987        0.3571500393       -0.4355541029
 O         -0.7413594316       -0.7691315754       -2.1662458301
 H         -1.3961794473       -1.4641573327       -2.3303699406
 H         -0.5937040767       -0.3497734958       -3.0273542089
 O          1.6017119559        0.7640624975        1.6052753047
 H          1.5575559297        1.6420612230        2.0147414696
 H          2.4475273993        0.3964656044        1.9004544481
